@<TRIPOS>MOLECULE
PIX
   74    78     1     0     0
SMALL
bcc


@<TRIPOS>ATOM
      1 C           -2.1610    -0.1250     0.4900 ce         1 PIX      -0.413600
      2 C1           1.4580    -3.4190     0.3060 ce         1 PIX      -0.123600
      3 C2           4.7010     0.1690    -0.0690 ce         1 PIX      -0.016600
      4 C3           1.0750     3.4600     0.0180 ce         1 PIX      -0.259600
      5 C4          -1.4360    -1.3050     0.3800 cc         1 PIX       0.500900
      6 C5          -2.0150    -2.5870     0.3200 cc         1 PIX      -0.262800
      7 C6          -1.0090    -3.5000     0.2700 cd         1 PIX      -0.135200
      8 C7           0.2160    -2.8030     0.2980 cd         1 PIX       0.069600
      9 C8          -1.1750    -4.9960     0.1970 c3         1 PIX      -0.021900
     10 C9          -3.4900    -2.8930     0.3140 c3         1 PIX       0.007800
     11 C10         -3.9980    -2.9260    -1.1290 c3         1 PIX      -0.127400
     12 C11         -5.4730    -3.2320    -1.1360 c          1 PIX       0.643100
     13 O           -6.0590    -3.4050    -0.0940 o          1 PIX      -0.584000
     14 O1          -6.1370    -3.3110    -2.3000 oh         1 PIX      -0.624100
     15 C12          2.6640    -2.7070     0.3080 cc         1 PIX       0.334900
     16 C13          3.9370    -3.3280     0.4180 cc         1 PIX      -0.229800
     17 C14          4.8740    -2.3410     0.3140 cd         1 PIX      -0.164000
     18 C15          4.1170    -1.0790     0.1390 cd         1 PIX      -0.022400
     19 C16          4.2030    -4.7980     0.6130 c3         1 PIX      -0.007900
     20 C17          6.3390    -2.4970     0.3650 cf         1 PIX      -0.022000
     21 C18          6.9350    -3.4190    -0.3850 c2         1 PIX      -0.333000
     22 C19          3.9640     1.3450    -0.1740 cc         1 PIX       0.302900
     23 C20          4.5310     2.6010    -0.4450 cc         1 PIX      -0.188800
     24 C21          3.5100     3.5360    -0.4370 cd         1 PIX      -0.176000
     25 C22          2.3040     2.8460    -0.1390 cd         1 PIX       0.109600
     26 C23          5.9910     2.8800    -0.6970 c3         1 PIX      -0.021900
     27 C24          3.6490     4.9810    -0.6920 cf         1 PIX      -0.025000
     28 C25          4.2010     5.4070    -1.8230 c2         1 PIX      -0.326000
     29 C26         -0.1020     2.7530     0.2980 cc         1 PIX       0.471900
     30 C27         -1.3820     3.3880     0.6410 cc         1 PIX      -0.220800
     31 C28         -2.2830     2.3890     0.7740 cd         1 PIX      -0.173200
     32 C29         -1.5610     1.1370     0.5110 cd         1 PIX       0.205600
     33 C30         -1.6390     4.8630     0.8110 c3         1 PIX      -0.025900
     34 C31         -3.7410     2.5320     1.1230 c3         1 PIX       0.003800
     35 C32         -4.5730     2.5630    -0.1600 c3         1 PIX      -0.125400
     36 C33         -6.0320     2.7060     0.1890 c          1 PIX       0.641100
     37 O2          -6.3720     2.7760     1.3470 o          1 PIX      -0.589000
     38 O3          -6.9540     2.7550    -0.7850 oh         1 PIX      -0.615100
     39 N           -0.0680    -1.4560     0.3210 nd         1 PIX      -0.514300
     40 N1           2.8200    -1.3860     0.2070 nd         1 PIX      -0.412300
     41 N2           2.6040     1.5060    -0.0330 nd         1 PIX      -0.444300
     42 N3          -0.2760     1.4310     0.2980 nd         1 PIX      -0.582300
     43 H            1.4980    -4.5080     0.3090 ha         1 PIX       0.083000
     44 H1           5.7860     0.2290    -0.1530 ha         1 PIX       0.083000
     45 H2           1.0180     4.5430    -0.0830 ha         1 PIX       0.085000
     46 H3          -1.2200    -5.3060    -0.8470 hc         1 PIX       0.021033
     47 H4          -0.3280    -5.4800     0.6830 hc         1 PIX       0.021033
     48 H5          -2.0970    -5.2850     0.7020 hc         1 PIX       0.021033
     49 H6          -3.6620    -3.8620     0.7820 hc         1 PIX       0.040200
     50 H7          -4.0240    -2.1210     0.8690 hc         1 PIX       0.040200
     51 H8          -3.8250    -1.9560    -1.5970 hc         1 PIX       0.096700
     52 H9          -3.4640    -3.6970    -1.6840 hc         1 PIX       0.096700
     53 H10          3.2560    -5.3360     0.6600 hc         1 PIX       0.013033
     54 H11          4.7940    -5.1750    -0.2220 hc         1 PIX       0.013033
     55 H12          4.7520    -4.9480     1.5430 hc         1 PIX       0.013033
     56 H13          6.9270    -1.8630     1.0110 ha         1 PIX       0.093000
     57 H14          7.9940    -3.6000    -0.2770 ha         1 PIX       0.086000
     58 H15          6.3600    -3.9870    -1.1020 ha         1 PIX       0.086000
     59 H16          6.5540     1.9490    -0.6390 hc         1 PIX       0.020700
     60 H17          6.1100     3.3160    -1.6890 hc         1 PIX       0.020700
     61 H18          6.3620     3.5780     0.0530 hc         1 PIX       0.020700
     62 H19          3.3030     5.6940     0.0420 ha         1 PIX       0.104000
     63 H20          4.6140     4.6960    -2.5230 ha         1 PIX       0.086500
     64 H21          4.2350     6.4640    -2.0430 ha         1 PIX       0.086500
     65 H22         -0.7150     5.4150     0.6390 hc         1 PIX       0.023700
     66 H23         -2.3940     5.1850     0.0940 hc         1 PIX       0.023700
     67 H24         -1.9940     5.0550     1.8240 hc         1 PIX       0.023700
     68 H25         -4.0520     1.6870     1.7380 hc         1 PIX       0.043200
     69 H26         -3.8930     3.4590     1.6770 hc         1 PIX       0.043200
     70 H27         -4.2620     3.4080    -0.7750 hc         1 PIX       0.092200
     71 H28         -4.4210     1.6360    -0.7140 hc         1 PIX       0.092200
     72 H29         -7.0820    -3.5100    -2.2540 ho         1 PIX       0.421000
     73 H30         -7.8770     2.8470    -0.5120 ho         1 PIX       0.423000
     74 H31         -3.2460    -0.1880     0.5670 ha         1 PIX       0.079000
@<TRIPOS>BOND
     1     1     5 1   
     2     1    32 2   
     3     1    74 1   
     4     2     8 2   
     5     2    15 1   
     6     2    43 1   
     7     3    18 2   
     8     3    22 1   
     9     3    44 1   
    10     4    25 2   
    11     4    29 1   
    12     4    45 1   
    13     5     6 1   
    14     5    39 2   
    15     6     7 2   
    16     6    10 1   
    17     7     8 1   
    18     7     9 1   
    19     8    39 1   
    20     9    46 1   
    21     9    47 1   
    22     9    48 1   
    23    10    11 1   
    24    10    49 1   
    25    10    50 1   
    26    11    12 1   
    27    11    51 1   
    28    11    52 1   
    29    12    13 2   
    30    12    14 1   
    31    14    72 1   
    32    15    16 1   
    33    15    40 2   
    34    16    17 2   
    35    16    19 1   
    36    17    18 1   
    37    17    20 1   
    38    18    40 1   
    39    19    53 1   
    40    19    54 1   
    41    19    55 1   
    42    20    21 2   
    43    20    56 1   
    44    21    57 1   
    45    21    58 1   
    46    22    23 1   
    47    22    41 2   
    48    23    24 2   
    49    23    26 1   
    50    24    25 1   
    51    24    27 1   
    52    25    41 1   
    53    26    59 1   
    54    26    60 1   
    55    26    61 1   
    56    27    28 2   
    57    27    62 1   
    58    28    63 1   
    59    28    64 1   
    60    29    30 1   
    61    29    42 2   
    62    30    31 2   
    63    30    33 1   
    64    31    32 1   
    65    31    34 1   
    66    32    42 1   
    67    33    65 1   
    68    33    66 1   
    69    33    67 1   
    70    34    35 1   
    71    34    68 1   
    72    34    69 1   
    73    35    36 1   
    74    35    70 1   
    75    35    71 1   
    76    36    37 2   
    77    36    38 1   
    78    38    73 1   
@<TRIPOS>SUBSTRUCTURE
     1 PIX         1 TEMP              0 ****  ****    0 ROOT
